Version 4
SHEET 1 880 680
SYMBOL LM3886 144 80 R0
SYMATTR InstName U1
